flow-decomposition/src/test/resources/com/powsybl/flow_decomposition/19700101_0000_FO4_UX1.uct
##C 2007.05.01
This file is a test file dedicated to flow decomposition algorithm development.
It contains a three countries network with PST, dangling lines and is used for test and illustration purpose.
##N
##ZBE
BB000011              1 0 400.00 0000000 0000000 0000000 0000000
BB000021              1 0 225.00 300.000 0000000 0000000 0000000
BF000011              1 2 400.00 0000000 0000000 -500.00 0000000 0000000 0000000 0000000 0000000
BF000012              1 0 400.00 0000000 0000000 0000000 0000000
BF000021              1 0 225.00 1000.00 0000000 0000000 0000000
BD000011              1 0 400.00 0000000 0000000 0000000 0000000
BD000021              1 0 225.00 0000000 0000000 0000000 0000000
##ZDE
DD000011              1 0 400.00 2000.00 0000000 0000000 0000000
DB000011              1 2 400.00 0000000 0000000 -300.00 0000000 0000000 0000000 0000000 0000000
DF000011              1 2 400.00 0000000 0000000 -300.00 0000000 0000000 0000000 0000000 0000000
##ZFR
FF000011              1 3 400.00 0000000 0000000 -2000.0 0000000 0000000 0000000 0000000 0000000
FB000011              1 0 400.00 0000000 0000000 0000000 0000000
FB000021              1 2 225.00 0000000 0000000 -100.00 0000000 0000000 0000000 0000000 0000000
FB000022              1 0 225.00 500.000 0000000 0000000 0000000
FD000011              1 0 400.00 200.000 0000000 0000000 0000000
FD000021              1 0 225.00 0000000 0000000 0000000 0000000
##ZXX
XBF00011              1 0 400.00 0000000 0000000 0000000 0000000
XBF00021              1 0 225.00 0000000 0000000 0000000 0000000
XBF00022              1 0 225.00 0000000 0000000 0000000 0000000
XDF00011              1 0 400.00 0000000 0000000 0000000 0000000
XBD00011              1 0 400.00 0000000 0000000 0000000 0000000
XBD00012              1 0 400.00 0000000 0000000 0000000 0000000
XES00011              1 0 400.00 -1000.0 0000000 0000000 0000000
XNL00011              1 0 400.00 200.000 0000000 0000000 0000000
##L
BB000011 BF000012 1 1 0.0000 1.0000 0.000000 5000
BB000011 BD000011 1 1 0.0000 1.0000 0.000000 5000
BD000011 BF000011 1 1 0.0000 1.0000 0.000000 5000
BB000021 BF000021 1 1 0.0000 1.0000 0.000000 5000
BB000021 BD000021 1 1 0.0000 1.0000 0.000000 5000
BD000021 BF000021 1 1 0.0000 1.0000 0.000000 5000
DB000011 DD000011 1 1 0.0000 1.0000 0.000000 5000
DB000011 DF000011 1 1 0.0000 1.0000 0.000000 5000
DD000011 DF000011 1 1 0.0000 1.0000 0.000000 5000
FB000011 FD000011 1 1 0.0000 1.0000 0.000000 5000
FB000011 FF000011 1 1 0.0000 1.0000 0.000000 5000
FD000011 FF000011 1 1 0.0000 1.0000 0.000000 5000
FD000011 FF000011 2 1 0.0000 1.0000 0.000000 5000
FB000021 FD000021 1 1 0.0000 1.0000 0.000000 5000
FB000021 FB000022 1 2 0.0000 0.0000 0.000000 5000
XBF00011 FB000011 1 1 0.0000 1.0000 0.000000 5000
XBF00011 BF000011 1 1 0.0000 1.0000 0.000000 5000
XBF00021 FB000021 1 1 0.0000 1.0000 0.000000 5000
XBF00021 BF000021 1 1 0.0000 1.0000 0.000000 5000
XBF00022 FB000022 1 1 0.0000 1.0000 0.000000 5000
XBF00022 BF000021 1 1 0.0000 1.0000 0.000000 5000
XDF00011 DF000011 1 1 0.0000 1.0000 0.000000 5000
XDF00011 FD000011 1 1 0.0000 1.0000 0.000000 5000
XBD00011 BD000011 1 1 0.0000 1.0000 0.000000 5000
XBD00011 DB000011 1 1 0.0000 1.0000 0.000000 5000
XBD00012 BD000011 1 1 0.0000 1.0000 0.000000 5000
XBD00012 DB000011 1 1 0.0000 1.0000 0.000000 5000
XES00011 FD000011 1 1 0.0000 1.0000 0.000000 5000
XNL00011 BB000011 1 1 0.0000 1.0000 0.000000 5000
##T
BF000011 BF000012 1 1 400.0 400.0 5000. 0.0000 1.0000 0.000000 0.0000 500000
BB000011 BB000021 1 1 400.0 225.0 5000. 0.0000 1.0000 0.000000 0.0000 500000
BF000011 BF000021 1 1 400.0 225.0 5000. 0.0000 1.0000 0.000000 0.0000 500000
BD000011 BD000021 1 1 400.0 225.0 5000. 0.0000 1.0000 0.000000 0.0000 500000
FB000011 FB000022 1 1 400.0 225.0 5000. 0.0000 1.0000 0.000000 0.0000 500000
FD000011 FD000021 1 1 400.0 225.0 5000. 0.0000 1.0000 0.000000 0.0000 500000
##R
BF000011 BF000012 1                    0.100 30.00 13 3         SYMM 